                  HI X - - - - - - - - - - - - - - - - - - - - - - - - - - - -
                SONY - X X - - - - - - - - X - - - - - - - - - - - - - - - - -
                 DRU - X - - - - - - - - - - - - - - - - - - - - - - - - - - -
                530A - X - - - - - - - - - - - - - - - - - - - - - - - - - - -
                 DVD - X X - S - - - - X - X X - - - - - - - - - - - - - - - -
              BURNER - O - - - - - - - O - - - - - - - - - - - - - - - - - - -
             UPGRADE - X - - - - - - - - - - - - - - - - - - - - - - - - - - -
                  1C - O - - - - - - - - - - - - - - - - - - - - - - - - - - -
                DELL - X - - - - - - - - - - - - - - - - - - - - - - - - - - -
           DIMENSION - X - - - - - - - - - - - - - - - - - - - - - - - - - - -
                 RAM - X - - - - - - - - - - - - - - - - - - - - - - - - - - -
           PROCESSOR - S - - - - - - - - - - - - - - - - - - - - - - - - - - -
              53MGHZ - X - - - - - - - - - - - - - - - - - - - - - - - - - - -
             PROBLEM - - S - - O - - - - - - - - - - - - - - - - - - - - O - -
              MOVIES - - O - - - - - - - - - - - - - - - - - - - - - - - - - -
                   R - - X O - - - - - - - - - - X - - - - - X - - - - - - - -
               MEDIA - - X - - - - - - - - - - - - - S - - - - X - - - - - - -
             MEMOREX - - O - - - - - - - - - - - - - - - - - - - - - - - - - -
                 TDK - - X - - - - - - - - - - - - - - - - - - - - - - - - - -
            COMPUTER - - X - - - O - - - - X - - - - - - - - - - - - - - - - -
              PLAYER - - X X - - - - - - - X O - - O - - - - - - - - - - - - -
              LIVING - - X - - - - - - - - X - - - - - - - - - - - - - - - - -
                ROOM - - X - O - - - - - - X - - - - - - - - - - - - - - - - -
             SCREENS - - O - - - - - - - - O - - - - - - - - - - - - - - - - -
               SKIPS - - O - - - - - - - - O - - - - - - - - - - - - - - - - -
                THAT - - - X - - - - - - - - - - O - - - - - - - - - - - - - -
                 ALL - - - S - - - - - - - X - - - - - - - - - - - - - - - - -
                 USE - - - - S - - - - - - - - - - - - - - - - - - - - - - - -
                NERO - - - - X - - - - - - - - - - - - - - - - - - - - - - - -
             BURNING - - - - X - - - - - - - - - - - - - - - - - - - - - - - -
              SPEEDS - - - - - X - - - - - - - - - - - - - - - - - - - - - - -
                SAME - - - - - - O - - - - - - - - - - - - - - - - - - - - - -
          BACKGROUND - - - - - - X - - - - - - - - - - - - - - - - - - - - - -
             PROGRAM - - - - - - O - - - - - - - - - - - - - - - - - - - - - -
                 JOB - - - - - - O - - - - - - - - - - - - - - - - - - - - - -
               MOVIE - - - - - - - O - - - - - - - - - - - - - - - - - - - - -
              SCENES - - - - - - - S - - - - - - - - - - - - - - - - - - - - -
             SECONDS - - - - - - - X - - - - - - - - - - - - - - - - - - - - -
                HELP - - - - - - - - O - - - - - - - - - - - - X - - - - - - -
                   T - - - - - - - - S - - - - - - - - - - - - - - - - - - S -
             GARBAGE - - - - - - - - - X - - - - - - - - - - - - - - - - - - -
              THANKS - - - - - - - - - - X - - - - - - - - - - - X - - - - - -
             MACHINE - - - - - - - - - - - - - - X - - - - - - - - - - - - - -
               DRIVE - - - - - - - - - - - - - - X - - - - - - - - - - - - - -
             CLOSING - - - - - - - - - - - - - - - - X - - - - - - - - - - - -
                  4X - - - - - - - - - - - - - - - - X - - - - - - - - - - - -
                  8X - - - - - - - - - - - - - - - - X - - - - - - - - - - - -
             FEELING - - - - - - - - - - - - - - - - - X - - - - - - - - - - -
            WEBSITES - - - - - - - - - - - - - - - - - - X - - - - - - - - - -
                 BOB - - - - - - - - - - - - - - - - - - - X - - - - - - - - -
            PLATINUM - - - - - - - - - - - - - - - - - - - - X - - - - - - - -
                 PRE - - - - - - - - - - - - - - - - - - - - X - - - - - - - -
             EDITION - - - - - - - - - - - - - - - - - - - - O - - - - - - - -
                DISC - - - - - - - - - - - - - - - - - - - - X - - - - - - X -
         INFORMATION - - - - - - - - - - - - - - - - - - - - - O X - - - - - -
             REVIEWS - - - - - - - - - - - - - - - - - - - - - O - - - - - - -
             BURNERS - - - - - - - - - - - - - - - - - - - - - X - - - - - - -
                 COM - - - - - - - - - - - - - - - - - - - - - O - - - - - - -
              ADVICE - - - - - - - - - - - - - - - - - - - - - - X - - - - - -
             EDDYMOO - - - - - - - - - - - - - - - - - - - - - - - X - - - - -
             EXPRESS - - - - - - - - - - - - - - - - - - - - - - - - O - - - -
               BURNS - - - - - - - - - - - - - - - - - - - - - - - - O - - - -
                  RE - - - - - - - - - - - - - - - - - - - - - - - - - S - - -
               FILES - - - - - - - - - - - - - - - - - - - - - - - - - O - - -
                FACT - - - - - - - - - - - - - - - - - - - - - - - - - - S - -
                   M - - - - - - - - - - - - - - - - - - - - - - - - - - X - -
                 DON - - - - - - - - - - - - - - - - - - - - - - - - - - - X -
                QUOT - - - - - - - - - - - - - - - - - - - - - - - - - - - X -
             MESSAGE - - - - - - - - - - - - - - - - - - - - - - - - - - - O -
                 BUT - - - - - - - - - - - - - - - - - - - - - - - - - - - - S
            BURNIONG - - - - - - - - - - - - - - - - - - - - - - - - - - - - X
                  PC - - - - - - - - - - - - - - - - - - - - - - - - - - - - X
            SOLUTION - - - - - - - - - - - - - - - - - - - - - - - - - - - - -
                POST - - - - - - - - - - - - - - - - - - - - - - - - - - - - -
             NOTHING - - - - - - - - - - - - - - - - - - - - - - - - - - - - -
             STRAINS - - - - - - - - - - - - - - - - - - - - - - - - - - - - -
              OWNERS - - - - - - - - - - - - - - - - - - - - - - - - - - - - -
           MICROSOFT - - - - - - - - - - - - - - - - - - - - - - - - - - - - -
             DRIVERS - - - - - - - - - - - - - - - - - - - - - - - - - - - - -
               FORUM - - - - - - - - - - - - - - - - - - - - - - - - - - - - -
                 TIP - - - - - - - - - - - - - - - - - - - - - - - - - - - - -
